Version 4
SHEET 1 944 680
WIRE 608 -320 384 -320
WIRE 608 -288 608 -320
WIRE 704 -288 608 -288
WIRE 384 -256 384 -320
WIRE 608 -256 608 -288
WIRE 704 -192 704 -288
WIRE 704 -192 672 -192
WIRE 384 -64 384 -128
WIRE 608 -64 608 -128
WIRE 608 -64 384 -64
WIRE 864 -64 864 -128
WIRE 864 -64 608 -64
SYMBOL cktsym\\nmos3 608 -192 R180
WINDOW 0 -12 0 Left 2
SYMATTR InstName ALD1106
SYMBOL cktsym\\isource 384 -192 R180
WINDOW 3 48 -16 Left 2
WINDOW 0 48 16 Left 2
SYMATTR Value I_sat
SYMATTR InstName Ch1
SYMBOL cktsym\\vsource 864 -192 R0
SYMATTR Value 5V
SYMATTR InstName V1
SYMBOL cktsym\\vdd_alt 864 -256 R0
SYMATTR InstName U1
SYMBOL cktsym\\vdd_alt 864 -256 R0
SYMATTR InstName U3
SYMBOL cktsym\\gnd_alt 864 -64 R0
SYMATTR InstName U2
SYMBOL cktsym\\gnd_alt 864 -64 R0
SYMATTR InstName U4
TEXT 384 0 Left 2 !.include engr2420.sub
