Version 4
SHEET 1 1264 680
WIRE 608 -288 384 -288
WIRE 1008 -288 784 -288
WIRE 384 -256 384 -288
WIRE 608 -256 608 -288
WIRE 688 -256 608 -256
WIRE 784 -256 784 -288
WIRE 1008 -256 1008 -288
WIRE 1168 -256 1168 -272
WIRE 688 -192 688 -256
WIRE 688 -192 672 -192
WIRE 720 -192 688 -192
WIRE 384 -96 384 -128
WIRE 608 -96 608 -128
WIRE 608 -96 384 -96
WIRE 784 -96 784 -128
WIRE 1008 -96 1008 -128
WIRE 1008 -96 784 -96
WIRE 1168 -96 1168 -128
WIRE 1168 -96 1008 -96
SYMBOL cktsym\\nmos3 608 -192 R180
WINDOW 0 -12 0 Left 2
SYMATTR InstName ALD1106
SYMBOL cktsym\\isource 384 -192 R180
WINDOW 3 48 -16 Left 2
WINDOW 0 48 16 Left 2
SYMATTR Value I_in
SYMATTR InstName I1
SYMBOL cktsym\\vsource 1168 -192 R0
SYMATTR Value 5V
SYMATTR InstName V1
SYMBOL cktsym\\vdd_alt 1168 -272 R0
SYMATTR InstName U1
SYMBOL cktsym\\nmos3 784 -192 R0
WINDOW 0 -3 -2 Left 2
SYMATTR InstName ALD1106
SYMBOL cktsym\\vsource 1008 -192 R0
WINDOW 3 48 12 Left 2
WINDOW 123 0 0 Left 0
WINDOW 39 0 0 Left 0
SYMATTR Value 5V
SYMATTR InstName Ch2
SYMBOL cktsym\\gnd_alt 1168 -96 R0
SYMATTR InstName U2
SYMBOL cktsym\\gnd_alt 1168 -96 R0
SYMATTR InstName U3
TEXT 376 -8 Left 2 !.include engr2420.sub
